psse/psse-model-test/src/main/resources/illinois/literature-based/IEEE 39 bus.RAW
 0,    100.00, 33, 0, 0, 60.00       / October 01, 2013 18:42:55
NEW ENGLAND TEST SYSTEM, 39 BUSES, 9 GENERATORS
Created by Pablo Ledesma pablole@ing.uc3m.es
    1,'1           ',   1.0000,1,   1,   1,   1,1.05178,  -8.5720
    2,'2           ',   1.0000,1,   1,   1,   1,1.05987,  -6.1285
    3,'3           ',   1.0000,1,   1,   1,   1,1.05655,  -8.9468
    4,'4           ',   1.0000,1,   1,   1,   1,1.05919,  -9.7788
    5,'5           ',   1.0000,1,   1,   1,   1,1.07359,  -8.7675
    6,'6           ',   1.0000,1,   1,   1,   1,1.07428,  -8.1428
    7,'7           ',   1.0000,1,   1,   1,   1,1.06115, -10.0765
    8,'8           ',   1.0000,1,   1,   1,   1,1.05858, -10.5180
    9,'9           ',   1.0000,1,   1,   1,   1,1.05402, -10.2767
   10,'10          ',   1.0000,1,   1,   1,   1,1.06106,  -5.8687
   11,'11          ',   1.0000,1,   1,   1,   1,1.06429,  -6.6552
   12,'12          ',   1.0000,1,   1,   1,   1,1.04934,  -6.6355
   13,'13          ',   1.0000,1,   1,   1,   1,1.05870,  -6.5196
   14,'14          ',   1.0000,1,   1,   1,   1,1.05614,  -8.0335
   15,'15          ',   1.0000,1,   1,   1,   1,1.04089,  -8.3098
   16,'16          ',   1.0000,1,   1,   1,   1,1.04853,  -6.9053
   17,'17          ',   1.0000,1,   1,   1,   1,1.05174,  -7.8681
   18,'18          ',   1.0000,1,   1,   1,   1,1.05233,  -8.6927
   19,'19          ',   1.0000,1,   1,   1,   1,1.05599,  -2.3321
   20,'20          ',   1.0000,1,   1,   1,   1,0.99422,  -3.7235
   21,'21          ',   1.0000,1,   1,   1,   1,1.04355,  -4.5464
   22,'22          ',   1.0000,1,   1,   1,   1,1.05611,  -0.1570
   23,'23          ',   1.0000,1,   1,   1,   1,1.05132,  -0.3532
   24,'24          ',   1.0000,1,   1,   1,   1,1.05258,  -6.7854
   25,'25          ',   1.0000,1,   1,   1,   1,1.06582,  -4.6949
   26,'26          ',   1.0000,1,   1,   1,   1,1.06229,  -5.9723
   27,'27          ',   1.0000,1,   1,   1,   1,1.05173,  -7.9718
   28,'28          ',   1.0000,1,   1,   1,   1,1.05541,  -2.4902
   29,'29          ',   1.0000,1,   1,   1,   1,1.05357,   0.2533
   30,'30          ',   1.0000,2,   1,   1,   1,1.04750,  -3.7342
   31,'31          ',   1.0000,3,   1,   1,   1,0.98200,  -1.5868
   32,'32          ',   1.0000,2,   1,   1,   1,0.98310,   1.7944
   33,'33          ',   1.0000,2,   1,   1,   1,0.99720,   2.8715
   34,'34          ',   1.0000,2,   1,   1,   1,1.01230,   1.4590
   35,'35          ',   1.0000,2,   1,   1,   1,1.04930,   4.7751
   36,'36          ',   1.0000,2,   1,   1,   1,1.06350,   7.4572
   37,'37          ',   1.0000,2,   1,   1,   1,1.02780,   2.0485
   38,'38          ',   1.0000,2,   1,   1,   1,1.02650,   7.3024
   39,'39          ',   1.0000,2,   1,   1,   1,1.03000, -10.0638
0 / END OF BUS DATA, BEGIN LOAD DATA
    1,'1 ',1,   1,   1,     0.000,     0.000,     0.000,     0.000,     0.000,    -0.000,   1,1
    2,'1 ',1,   1,   1,     0.000,     0.000,     0.000,     0.000,     0.000,    -0.000,   1,1
    3,'1 ',1,   1,   1,   322.000,     2.400,     0.000,     0.000,     0.000,    -0.000,   1,1
    4,'1 ',1,   1,   1,   500.000,   184.000,     0.000,     0.000,     0.000,    -0.000,   1,1
    5,'1 ',1,   1,   1,     0.000,     0.000,     0.000,     0.000,     0.000,    -0.000,   1,1
    6,'1 ',1,   1,   1,     0.000,     0.000,     0.000,     0.000,     0.000,    -0.000,   1,1
    7,'1 ',1,   1,   1,   233.800,    84.000,     0.000,     0.000,     0.000,    -0.000,   1,1
    8,'1 ',1,   1,   1,   522.000,   176.000,     0.000,     0.000,     0.000,    -0.000,   1,1
    9,'1 ',1,   1,   1,     0.000,     0.000,     0.000,     0.000,     0.000,    -0.000,   1,1
   10,'1 ',1,   1,   1,     0.000,     0.000,     0.000,     0.000,     0.000,    -0.000,   1,1
   11,'1 ',1,   1,   1,     0.000,     0.000,     0.000,     0.000,     0.000,    -0.000,   1,1
   12,'1 ',1,   1,   1,     7.500,    88.000,     0.000,     0.000,     0.000,    -0.000,   1,1
   13,'1 ',1,   1,   1,     0.000,     0.000,     0.000,     0.000,     0.000,    -0.000,   1,1
   14,'1 ',1,   1,   1,     0.000,     0.000,     0.000,     0.000,     0.000,    -0.000,   1,1
   15,'1 ',1,   1,   1,   320.000,   153.000,     0.000,     0.000,     0.000,    -0.000,   1,1
   16,'1 ',1,   1,   1,   329.400,    32.300,     0.000,     0.000,     0.000,    -0.000,   1,1
   17,'1 ',1,   1,   1,     0.000,     0.000,     0.000,     0.000,     0.000,    -0.000,   1,1
   18,'1 ',1,   1,   1,   158.000,    30.000,     0.000,     0.000,     0.000,    -0.000,   1,1
   19,'1 ',1,   1,   1,     0.000,     0.000,     0.000,     0.000,     0.000,    -0.000,   1,1
   20,'1 ',1,   1,   1,   680.000,   103.000,     0.000,     0.000,     0.000,    -0.000,   1,1
   21,'1 ',1,   1,   1,   274.000,   115.000,     0.000,     0.000,     0.000,    -0.000,   1,1
   22,'1 ',1,   1,   1,     0.000,     0.000,     0.000,     0.000,     0.000,    -0.000,   1,1
   23,'1 ',1,   1,   1,   247.500,    84.600,     0.000,     0.000,     0.000,    -0.000,   1,1
   24,'1 ',1,   1,   1,   308.600,   -92.200,     0.000,     0.000,     0.000,    -0.000,   1,1
   25,'1 ',1,   1,   1,   224.000,    47.200,     0.000,     0.000,     0.000,    -0.000,   1,1
   26,'1 ',1,   1,   1,   139.000,    17.000,     0.000,     0.000,     0.000,    -0.000,   1,1
   27,'1 ',1,   1,   1,   281.000,    75.500,     0.000,     0.000,     0.000,    -0.000,   1,1
   28,'1 ',1,   1,   1,   206.000,    27.600,     0.000,     0.000,     0.000,    -0.000,   1,1
   29,'1 ',1,   1,   1,   283.500,    26.900,     0.000,     0.000,     0.000,    -0.000,   1,1
   31,'1 ',1,   1,   1,     9.200,     4.600,     0.000,     0.000,     0.000,    -0.000,   1,1
   39,'1 ',1,   1,   1,  1104.000,   250.000,     0.000,     0.000,     0.000,    -0.000,   1,1
0 / END OF LOAD DATA, BEGIN FIXED SHUNT DATA
     4,' 1', 1,     0.000,   100.000
     5,' 1', 1,     0.000,   200.000
0 / END OF FIXED SHUNT DATA, BEGIN GENERATOR DATA
   30,'1 ',   250.000,    83.211,   800.000,  -500.000,1.04750,    0,   100.000,   0.00000,   1.00000    0.00000,   0.00000,1.00000,1,  100.0,  9999.900,     0.000,   1,1.0000,   0,1.0000,   0,1.0000,   0,1.0000,0, 1.0000
   31,'1 ',   571.285,   363.936,   800.000,  -500.000,0.98200,    0,   100.000,   0.00000,   1.00000    0.00000,   0.00000,1.00000,1,  100.0,  9999.900,     0.000,   1,1.0000,   0,1.0000,   0,1.0000,   0,1.0000,0, 1.0000
   32,'1 ',   650.000,     1.533,   800.000,  -500.000,0.98310,    0,   100.000,   0.00000,   1.00000    0.00000,   0.00000,1.00000,1,  100.0,  9999.900,     0.000,   1,1.0000,   0,1.0000,   0,1.0000,   0,1.0000,0, 1.0000
   33,'1 ',   632.000,    69.667,   800.000,  -500.000,0.99720,    0,   100.000,   0.00000,   1.00000    0.00000,   0.00000,1.00000,1,  100.0,  9999.900,     0.000,   1,1.0000,   0,1.0000,   0,1.0000,   0,1.0000,0, 1.0000
   34,'1 ',   508.000,   148.790,   800.000,  -300.000,1.01230,    0,   100.000,   0.00000,   1.00000    0.00000,   0.00000,1.00000,1,  100.0,  9999.900,     0.000,   1,1.0000,   0,1.0000,   0,1.0000,   0,1.0000,0, 1.0000
   35,'1 ',   650.000,   167.043,   800.000,  -500.000,1.04930,    0,   100.000,   0.00000,   1.00000    0.00000,   0.00000,1.00000,1,  100.0,  9999.900,     0.000,   1,1.0000,   0,1.0000,   0,1.0000,   0,1.0000,0, 1.0000
   36,'1 ',   560.000,    75.449,   800.000,  -500.000,1.06350,    0,   100.000,   0.00000,   1.00000    0.00000,   0.00000,1.00000,1,  100.0,  9999.900,     0.000,   1,1.0000,   0,1.0000,   0,1.0000,   0,1.0000,0, 1.0000
   37,'1 ',   540.000,   -35.347,   800.000,  -500.000,1.02780,    0,   100.000,   0.00000,   1.00000    0.00000,   0.00000,1.00000,1,  100.0,  9999.900,     0.000,   1,1.0000,   0,1.0000,   0,1.0000,   0,1.0000,0, 1.0000
   38,'1 ',   830.000,    -0.473,   800.000,  -500.000,1.02650,    0,   100.000,   0.00000,   1.00000    0.00000,   0.00000,1.00000,1,  100.0,  9999.900,     0.000,   1,1.0000,   0,1.0000,   0,1.0000,   0,1.0000,0, 1.0000
   39,'1 ',  1000.000,   -36.487,  1500.000, -1000.000,1.03000,    0,   100.000,   0.00000,   1.00000    0.00000,   0.00000,1.00000,1,  100.0,  9999.900,     0.000,   1,1.0000,   0,1.0000,   0,1.0000,   0,1.0000,0, 1.0000
0 / END OF GENERATOR DATA, BEGIN BRANCH DATA
    1,     2,'1 ', 0.00350, 0.04110,0.69870,   0.00,   0.00,   1.00,  0.00000,  0.00000,  0.00000,  0.00000,1,1,   0.0,   1,1.0000,   0,1.0000,   0,1.0000,   0,1.0000
    1,    39,'1 ', 0.00100, 0.02500,0.75000,   0.00,   0.00,   1.00,  0.00000,  0.00000,  0.00000,  0.00000,1,1,   0.0,   1,1.0000,   0,1.0000,   0,1.0000,   0,1.0000
    2,     3,'1 ', 0.00130, 0.01510,0.25720,   0.00,   0.00,   1.00,  0.00000,  0.00000,  0.00000,  0.00000,1,1,   0.0,   1,1.0000,   0,1.0000,   0,1.0000,   0,1.0000
    2,    25,'1 ', 0.00700, 0.00860,0.14600,   0.00,   0.00,   1.00,  0.00000,  0.00000,  0.00000,  0.00000,1,1,   0.0,   1,1.0000,   0,1.0000,   0,1.0000,   0,1.0000
    3,     4,'1 ', 0.00130, 0.02130,0.22140,   0.00,   0.00,   1.00,  0.00000,  0.00000,  0.00000,  0.00000,1,1,   0.0,   1,1.0000,   0,1.0000,   0,1.0000,   0,1.0000
    3,    18,'1 ', 0.00110, 0.01330,0.21380,   0.00,   0.00,   1.00,  0.00000,  0.00000,  0.00000,  0.00000,1,1,   0.0,   1,1.0000,   0,1.0000,   0,1.0000,   0,1.0000
    4,     5,'1 ', 0.00080, 0.01280,0.13420,   0.00,   0.00,   1.00,  0.00000,  0.00000,  0.00000,  0.00000,1,1,   0.0,   1,1.0000,   0,1.0000,   0,1.0000,   0,1.0000
    4,    14,'1 ', 0.00080, 0.01290,0.13820,   0.00,   0.00,   1.00,  0.00000,  0.00000,  0.00000,  0.00000,1,1,   0.0,   1,1.0000,   0,1.0000,   0,1.0000,   0,1.0000
    5,     6,'1 ', 0.00020, 0.00260,0.04340,   0.00,   0.00,   1.00,  0.00000,  0.00000,  0.00000,  0.00000,1,2,   0.0,   1,1.0000,   0,1.0000,   0,1.0000,   0,1.0000
    5,     8,'1 ', 0.00080, 0.01120,0.14760,   0.00,   0.00,   1.00,  0.00000,  0.00000,  0.00000,  0.00000,1,1,   0.0,   1,1.0000,   0,1.0000,   0,1.0000,   0,1.0000
    6,     7,'1 ', 0.00060, 0.00920,0.11300,   0.00,   0.00,   1.00,  0.00000,  0.00000,  0.00000,  0.00000,1,1,   0.0,   1,1.0000,   0,1.0000,   0,1.0000,   0,1.0000
    6,    11,'1 ', 0.00070, 0.00820,0.13890,   0.00,   0.00,   1.00,  0.00000,  0.00000,  0.00000,  0.00000,1,1,   0.0,   1,1.0000,   0,1.0000,   0,1.0000,   0,1.0000
    7,     8,'1 ', 0.00040, 0.00460,0.07800,   0.00,   0.00,   1.00,  0.00000,  0.00000,  0.00000,  0.00000,1,1,   0.0,   1,1.0000,   0,1.0000,   0,1.0000,   0,1.0000
    8,     9,'1 ', 0.00230, 0.03630,0.38040,   0.00,   0.00,   1.00,  0.00000,  0.00000,  0.00000,  0.00000,1,1,   0.0,   1,1.0000,   0,1.0000,   0,1.0000,   0,1.0000
    9,    39,'1 ', 0.00100, 0.02500,1.20000,   0.00,   0.00,   1.00,  0.00000,  0.00000,  0.00000,  0.00000,1,1,   0.0,   1,1.0000,   0,1.0000,   0,1.0000,   0,1.0000
   10,    11,'1 ', 0.00040, 0.00430,0.07290,   0.00,   0.00,   1.00,  0.00000,  0.00000,  0.00000,  0.00000,1,1,   0.0,   1,1.0000,   0,1.0000,   0,1.0000,   0,1.0000
   10,    13,'1 ', 0.00040, 0.00430,0.07290,   0.00,   0.00,   1.00,  0.00000,  0.00000,  0.00000,  0.00000,1,1,   0.0,   1,1.0000,   0,1.0000,   0,1.0000,   0,1.0000
   13,    14,'1 ', 0.00090, 0.01010,0.17230,   0.00,   0.00,   1.00,  0.00000,  0.00000,  0.00000,  0.00000,1,1,   0.0,   1,1.0000,   0,1.0000,   0,1.0000,   0,1.0000
   14,    15,'1 ', 0.00180, 0.02170,0.36600,   0.00,   0.00,   1.00,  0.00000,  0.00000,  0.00000,  0.00000,1,1,   0.0,   1,1.0000,   0,1.0000,   0,1.0000,   0,1.0000
   15,    16,'1 ', 0.00090, 0.00940,0.17100,   0.00,   0.00,   1.00,  0.00000,  0.00000,  0.00000,  0.00000,1,1,   0.0,   1,1.0000,   0,1.0000,   0,1.0000,   0,1.0000
   16,    17,'1 ', 0.00070, 0.00890,0.13420,   0.00,   0.00,   1.00,  0.00000,  0.00000,  0.00000,  0.00000,1,1,   0.0,   1,1.0000,   0,1.0000,   0,1.0000,   0,1.0000
   16,    19,'1 ', 0.00160, 0.01950,0.30400,   0.00,   0.00,   1.00,  0.00000,  0.00000,  0.00000,  0.00000,1,1,   0.0,   1,1.0000,   0,1.0000,   0,1.0000,   0,1.0000
   16,    21,'1 ', 0.00080, 0.01350,0.25480,   0.00,   0.00,   1.00,  0.00000,  0.00000,  0.00000,  0.00000,1,1,   0.0,   1,1.0000,   0,1.0000,   0,1.0000,   0,1.0000
   16,    24,'1 ', 0.00030, 0.00590,0.06800,   0.00,   0.00,   1.00,  0.00000,  0.00000,  0.00000,  0.00000,1,1,   0.0,   1,1.0000,   0,1.0000,   0,1.0000,   0,1.0000
   17,    18,'1 ', 0.00070, 0.00820,0.13190,   0.00,   0.00,   1.00,  0.00000,  0.00000,  0.00000,  0.00000,1,1,   0.0,   1,1.0000,   0,1.0000,   0,1.0000,   0,1.0000
   17,    27,'1 ', 0.00130, 0.01730,0.32160,   0.00,   0.00,   1.00,  0.00000,  0.00000,  0.00000,  0.00000,1,1,   0.0,   1,1.0000,   0,1.0000,   0,1.0000,   0,1.0000
   21,    22,'1 ', 0.00080, 0.01400,0.25650,   0.00,   0.00,   1.00,  0.00000,  0.00000,  0.00000,  0.00000,1,1,   0.0,   1,1.0000,   0,1.0000,   0,1.0000,   0,1.0000
   22,    23,'1 ', 0.00060, 0.00960,0.18460,   0.00,   0.00,   1.00,  0.00000,  0.00000,  0.00000,  0.00000,1,1,   0.0,   1,1.0000,   0,1.0000,   0,1.0000,   0,1.0000
   23,    24,'1 ', 0.00220, 0.03500,0.36100,   0.00,   0.00,   1.00,  0.00000,  0.00000,  0.00000,  0.00000,1,1,   0.0,   1,1.0000,   0,1.0000,   0,1.0000,   0,1.0000
   25,    26,'1 ', 0.00320, 0.03230,0.51300,   0.00,   0.00,   1.00,  0.00000,  0.00000,  0.00000,  0.00000,1,1,   0.0,   1,1.0000,   0,1.0000,   0,1.0000,   0,1.0000
   26,    27,'1 ', 0.00140, 0.01470,0.23960,   0.00,   0.00,   1.00,  0.00000,  0.00000,  0.00000,  0.00000,1,1,   0.0,   1,1.0000,   0,1.0000,   0,1.0000,   0,1.0000
   26,    28,'1 ', 0.00430, 0.04740,0.78020,   0.00,   0.00,   1.00,  0.00000,  0.00000,  0.00000,  0.00000,1,1,   0.0,   1,1.0000,   0,1.0000,   0,1.0000,   0,1.0000
   26,    29,'1 ', 0.00570, 0.06250,1.02900,   0.00,   0.00,   1.00,  0.00000,  0.00000,  0.00000,  0.00000,1,1,   0.0,   1,1.0000,   0,1.0000,   0,1.0000,   0,1.0000
   28,    29,'1 ', 0.00140, 0.01510,0.24900,   0.00,   0.00,   1.00,  0.00000,  0.00000,  0.00000,  0.00000,1,1,   0.0,   1,1.0000,   0,1.0000,   0,1.0000,   0,1.0000
0 / END OF BRANCH DATA, BEGIN TRANSFORMER DATA
    2,   30,    0,'1 ',1,1,1,  0.00000,  0.00000,2,'        ',1,   1,1.0000,   0,1.0000,   0,1.0000,   0,1.0000
 0.00000, 0.01810, 100.00
1.02500,  0.000,   0.000,   0.00,   0.00,   0.00,0,     0, 1.20000, 0.80000, 1.20000, 0.80000,  8, 0, 0.00000, 0.00000
1.00000,  0.000
   31,    6,    0,'1 ',1,1,1,  0.00000,  0.00000,2,'        ',1,   1,1.0000,   0,1.0000,   0,1.0000,   0,1.0000
 0.00000, 0.02500, 100.00
0.85714,  0.000,   0.000,   0.00,   0.00,   0.00,1,     6, 1.20000, 0.80000, 1.17000, 0.98000,  8, 0, 0.00000, 0.00000
1.00000,  0.000
   10,   32,    0,'1 ',1,1,1,  0.00000,  0.00000,2,'        ',1,   1,1.0000,   0,1.0000,   0,1.0000,   0,1.0000
 0.00000, 0.02000, 100.00
1.07000,  0.000,   0.000,   0.00,   0.00,   0.00,0,     0, 1.20000, 0.80000, 1.20000, 0.80000,  8, 0, 0.00000, 0.00000
1.00000,  0.000
   12,   11,    0,'1 ',1,1,1,  0.00000,  0.00000,2,'        ',1,   1,1.0000,   0,1.0000,   0,1.0000,   0,1.0000
 0.00160, 0.04350, 100.00
1.00600,  0.000,   0.000,   0.00,   0.00,   0.00,0,     0, 1.20000, 0.80000, 1.20000, 0.80000,  8, 0, 0.00000, 0.00000
1.00000,  0.000
   12,   13,    0,'1 ',1,1,1,  0.00000,  0.00000,2,'        ',1,   1,1.0000,   0,1.0000,   0,1.0000,   0,1.0000
 0.00160, 0.04350, 100.00
1.00600,  0.000,   0.000,   0.00,   0.00,   0.00,0,     0, 1.20000, 0.80000, 1.20000, 0.80000,  8, 0, 0.00000, 0.00000
1.00000,  0.000
   19,   20,    0,'1 ',1,1,1,  0.00000,  0.00000,2,'        ',1,   1,1.0000,   0,1.0000,   0,1.0000,   0,1.0000
 0.00070, 0.01380, 100.00
1.06000,  0.000,   0.000,   0.00,   0.00,   0.00,0,     0, 1.20000, 0.80000, 1.20000, 0.80000,  8, 0, 0.00000, 0.00000
1.00000,  0.000
   19,   33,    0,'1 ',1,1,1,  0.00000,  0.00000,2,'        ',1,   1,1.0000,   0,1.0000,   0,1.0000,   0,1.0000
 0.00070, 0.01420, 100.00
1.07000,  0.000,   0.000,   0.00,   0.00,   0.00,0,     0, 1.20000, 0.80000, 1.20000, 0.80000,  8, 0, 0.00000, 0.00000
1.00000,  0.000
   20,   34,    0,'1 ',1,1,1,  0.00000,  0.00000,2,'        ',1,   1,1.0000,   0,1.0000,   0,1.0000,   0,1.0000
 0.00090, 0.01800, 100.00
1.00900,  0.000,   0.000,   0.00,   0.00,   0.00,0,     0, 1.20000, 0.80000, 1.20000, 0.80000,  8, 0, 0.00000, 0.00000
1.00000,  0.000
   22,   35,    0,'1 ',1,1,1,  0.00000,  0.00000,2,'        ',1,   1,1.0000,   0,1.0000,   0,1.0000,   0,1.0000
 0.00000, 0.01430, 100.00
1.02500,  0.000,   0.000,   0.00,   0.00,   0.00,0,     0, 1.20000, 0.80000, 1.20000, 0.80000,  8, 0, 0.00000, 0.00000
1.00000,  0.000
   23,   36,    0,'1 ',1,1,1,  0.00000,  0.00000,2,'        ',1,   1,1.0000,   0,1.0000,   0,1.0000,   0,1.0000
 0.00050, 0.02720, 100.00
1.00000,  0.000,   0.000,   0.00,   0.00,   0.00,0,     0, 1.20000, 0.80000, 1.20000, 0.80000,  8, 0, 0.00000, 0.00000
1.00000,  0.000
   25,   37,    0,'1 ',1,1,1,  0.00000,  0.00000,2,'        ',1,   1,1.0000,   0,1.0000,   0,1.0000,   0,1.0000
 0.00060, 0.02320, 100.00
1.02500,  0.000,   0.000,   0.00,   0.00,   0.00,0,     0, 1.20000, 0.80000, 1.20000, 0.80000,  8, 0, 0.00000, 0.00000
1.00000,  0.000
   29,   38,    0,'1 ',1,1,1,  0.00000,  0.00000,2,'        ',1,   1,1.0000,   0,1.0000,   0,1.0000,   0,1.0000
 0.00080, 0.01560, 100.00
1.02500,  0.000,   0.000,   0.00,   0.00,   0.00,0,     0, 1.20000, 0.80000, 1.20000, 0.80000,  8, 0, 0.00000, 0.00000
1.00000,  0.000
0 / END OF TRANSFORMER DATA, BEGIN AREA DATA
   1,    0,     0.000,     1.000,'1           '
0 / END OF AREA DATA, BEGIN TWO-TERMINAL DC DATA
0 / END OF TWO-TERMINAL DC DATA, BEGIN VOLTAGE SOURCE CONVERTER DATA
0 / END OF VOLTAGE SOURCE CONVERTER DATA, BEGIN IMPEDANCE CORRECTION DATA
0 / END OF IMPEDANCE CORRECTION DATA, BEGIN MULTI-TERMINAL DC DATA
0 / END OF MULTI-TERMINAL DC DATA, BEGIN MULTI-SECTION LINE DATA
0 / END OF MULTI-SECTION LINE DATA, BEGIN ZONE DATA
   1,'1       '
0 / END OF ZONE DATA, BEGIN INTER-AREA TRANSFER DATA
0 / END OF INTER-AREA TRANSFER DATA, BEGIN OWNER DATA
    1,'1'
0 / END OF OWNER DATA, BEGIN FACTS CONTROL DEVICE DATA
0 / END OF FACTS CONTROL DEVICE DATA, BEGIN SWITCHED SHUNT DATA
0 /END OF SWITCHED SHUNT DATA, BEGIN GNE DEVICE DATA
0 /END OF GNE DEVICE DATA
Q
